Circuit: * C:\Users\chrisn\Documents\GitHub\solarTag\Draft2.asc

WARNING: Node N001 is floating and connected to current source I1.  It's .op solution is defined solely by a .ic statement.

Direct Newton iteration for .op point succeeded.

Date: Sat Aug 11 06:41:43 2018
Total elapsed time: 0.047 seconds.

tnom = 27
temp = 27
method = modified trap
totiter = 2105
traniter = 2102
tranpoints = 1052
accept = 1052
rejected = 0
matrix size = 1
fillins = 0
solver = Normal
Matrix Compiler1: off  0.0/[0.0]/0.0
Matrix Compiler2: 43 bytes object code size  0.0/0.0/[0.0]

